####################################################################### 
# 
# This file contains crystal structure data downloaded from the 
# Cambridge Structural Database (CSD) hosted by the Cambridge 
# Crystallographic Data Centre (CCDC).
# 
# Full information about CCDC data access policies and citation 
# guidelines are available at http://www.ccdc.cam.ac.uk/access/V1 
# 
# Audit and citation data items may have been added by the CCDC. 
# Please retain this information to preserve the provenance of 
# this file and to allow appropriate attribution of the data. 
# 
#######################################################################

data_Nddca_overall
_audit_block_doi                 10.5517/cc8vh9w
_database_code_depnum_ccdc_archive 'CCDC 263788'
loop_
_citation_id
_citation_doi
_citation_year
1 10.1016/j.jssc.2004.10.030 2005
_audit_update_record             
;
2005-02-14 deposited with the CCDC.	2023-10-11 downloaded from the CCDC.
;

_refine_ls_shift/esd_max         .37
_refine_ls_shift/esd_mean        .07
_computing_structure_refinement  GSAS
_refine_ls_number_parameters     31
_refine_ls_goodness_of_fit_all   .83
_refine_ls_number_restraints     0

#data_Nddca_phase_1

_pd_block_id                     2003-09-24T16:59|PHASE_1||

_pd_phase_name                   Nd[N(CN)2]3
_cell_length_a                   7.87787(34)
_cell_length_b                   11.4459(4)
_cell_length_c                   10.1554(4)
_cell_angle_alpha                90.0
_cell_angle_beta                 90.0
_cell_angle_gamma                90.0
_symmetry_cell_setting           orthorhombic
_symmetry_space_group_name_H-M   'C m c m'
loop_
_symmetry_equiv_pos_as_xyz
+x,+y,+z
-x,+y,+z
+x,-y,+z+1/2
-x,-y,+z+1/2
-x,-y,-z
+x,-y,-z
-x,+y,-z+1/2
+x,+y,-z+1/2
+x+1/2,+y+1/2,+z
-x+1/2,+y+1/2,+z
+x+1/2,-y+1/2,+z+1/2
-x+1/2,-y+1/2,+z+1/2
-x+1/2,-y+1/2,-z
+x+1/2,-y+1/2,-z
-x+1/2,+y+1/2,-z+1/2
+x+1/2,+y+1/2,-z+1/2

loop_
_atom_site_label
_atom_site_fract_x
_atom_site_fract_y
_atom_site_fract_z
_atom_site_occupancy
_atom_site_thermal_displace_type
_atom_site_U_iso_or_equiv
_atom_site_symmetry_multiplicity
ND1 .0 .28828(11) .25 1.0 Uiso .01366(17) 4
C1 .1340(17) .5889(11) .25 1.0 Uiso .023(5) 8
C2 .1374(12) .1399(8) .5498(9) 1.0 Uiso .033(4) 16
N1 .0 .5172(12) .25 1.0 Uiso .028(6) 4
N2 .2693(12) .6315(8) .25 1.0 Uiso .025(4) 8
N3 .0 .1629(8) .4800(9) 1.0 Uiso .014(4) 8
N4 .2718(9) .1354(6) .5939(6) 1.0 Uiso .0179(25) 16

loop_
_atom_type_symbol
_atom_type_number_in_cell
ND 4.0
C 24.0
N 36.0
