
#######################################################################
#
#                 Cambridge Crystallographic Data Centre
#                                CCDC 
#
#######################################################################
#
# If this CIF has been generated from an entry in the Cambridge 
# Structural Database, then it will include bibliographic, chemical, 
# crystal, experimental, refinement or atomic coordinate data resulting 
# from the CCDC's data processing and validation procedures.
#
#######################################################################

data_shelx
_symmetry_cell_setting           monoclinic
_symmetry_space_group_name_H-M   'P 21'
_symmetry_Int_Tables_number      4
_space_group_name_Hall           'P 2yb'
loop_
_symmetry_equiv_pos_site_id
_symmetry_equiv_pos_as_xyz
1 x,y,z
2 -x,1/2+y,-z
_cell_length_a                   9.0909(15)
_cell_length_b                   10.8670(17)
_cell_length_c                   19.827(3)
_cell_angle_alpha                90
_cell_angle_beta                 103.132(5)
_cell_angle_gamma                90
_cell_volume                     1907.5
loop_
_atom_site_label
_atom_site_type_symbol
_atom_site_fract_x
_atom_site_fract_y
_atom_site_fract_z
W1 W 0.18264(6) 0.78323(2) 0.36494(2)
Nd1 Nd 0.23044(7) 1.28260(13) 0.46135(3)
O2 O 0.2926(17) 1.4190(13) 0.5649(7)
N4 N 0.1975(19) 0.4975(14) 0.4176(8)
N3 N 0.4827(12) 0.778(2) 0.4941(5)
O4 O 0.3392(12) 1.295(2) 0.3600(5)
O3 O 0.0181(13) 1.292(3) 0.3594(5)
N2 N 0.0095(14) 0.778(2) 0.4953(5)
C3 C 0.3778(14) 0.792(3) 0.4517(6)
C4 C 0.1898(18) 0.5988(13) 0.4011(8)
C2 C 0.0731(13) 0.786(3) 0.4535(6)
C1 C 0.219(3) 0.967(2) 0.3960(12)
O1 O 0.2697(15) 1.1493(12) 0.5646(7)
N6 N 0.182(4) 0.615(3) 0.2256(15)
N5 N 0.4911(19) 0.6885(15) 0.3108(6)
C5 C 0.379(3) 0.7218(14) 0.3302(7)
C10 C 0.202(2) 1.5226(16) 0.5847(10)
H10A H 0.256867 1.558667 0.628541
H10B H 0.185509 1.585598 0.54843
H10C H 0.104268 1.491194 0.590185
C8 C 0.077(3) 0.892(2) 0.2790(13)
C9 C 0.379(2) 1.0445(16) 0.5851(10)
H9A H 0.366983 1.009726 0.629203
H9B H 0.35847 0.980717 0.549273
H9C H 0.482473 1.074723 0.590376
C7 C -0.049(3) 0.8415(16) 0.3293(8)
C12 C 0.458(4) 1.217(3) 0.3362(16)
H12A H 0.47399 1.248859 0.29238
H12B H 0.552736 1.219252 0.371403
H12C H 0.422057 1.131329 0.329721
C11 C -0.116(3) 1.206(2) 0.3459(14)
H11A H -0.18531 1.227704 0.302156
H11B H -0.080682 1.120883 0.34313
H11C H -0.168472 1.212023 0.383815
N1 N 0.229(2) 1.0719(19) 0.4200(11)
N7 N -0.182(2) 0.8731(16) 0.3131(7)
N8 N 0.033(3) 0.947(2) 0.2266(12)
C6 C 0.177(3) 0.674(2) 0.2770(12)
H2 H 0.321(15) 1.379(7) 0.6096(18)
H4 H 0.363(17) 1.375(4) 0.344(7)
H3 H -0.028(10) 1.368(5) 0.340(7)
H1 H 0.194(11) 1.134(13) 0.590(7)
Nd1 Nd 0.23044(7) 0.28260(13) 0.46135(3)
Nd1 Nd -0.23044(7) 0.78260(13) 0.53865(3)
Nd1 Nd 0.76956(7) 0.78260(13) 0.53865(3)
N4 N 0.1975(19) 1.4975(14) 0.4176(8)
N3 N 0.5173(12) 1.278(2) 0.5059(5)
N2 N -0.0095(14) 1.278(2) 0.5047(5)

#END
