
#######################################################################
#
#                 Cambridge Crystallographic Data Centre
#                                CCDC 
#
#######################################################################
#
# If this CIF has been generated from an entry in the Cambridge 
# Structural Database, then it will include bibliographic, chemical, 
# crystal, experimental, refinement or atomic coordinate data resulting 
# from the CCDC's data processing and validation procedures.
#
#######################################################################

data_shelx
_symmetry_cell_setting           hexagonal
_symmetry_space_group_name_H-M   'P 63/m m c'
_symmetry_Int_Tables_number      194
_space_group_name_Hall           '-P 6c 2c'
loop_
_symmetry_equiv_pos_site_id
_symmetry_equiv_pos_as_xyz
1 x,y,z
2 -y,x-y,z
3 -x+y,-x,z
4 -x,-y,1/2+z
5 y,-x+y,1/2+z
6 x-y,x,1/2+z
7 y,x,-z
8 x-y,-y,-z
9 -x,-x+y,-z
10 -y,-x,1/2-z
11 -x+y,y,1/2-z
12 x,x-y,1/2-z
13 -x,-y,-z
14 y,-x+y,-z
15 x-y,x,-z
16 x,y,1/2-z
17 -y,x-y,1/2-z
18 -x+y,-x,1/2-z
19 -y,-x,z
20 -x+y,y,z
21 x,x-y,z
22 y,x,1/2+z
23 x-y,-y,1/2+z
24 -x,-x+y,1/2+z
_cell_length_a                   7.4296(3)
_cell_length_b                   7.4296(3)
_cell_length_c                   13.1115(10)
_cell_angle_alpha                90
_cell_angle_beta                 90
_cell_angle_gamma                120
_cell_volume                     626.778
loop_
_atom_site_label
_atom_site_type_symbol
_atom_site_fract_x
_atom_site_fract_y
_atom_site_fract_z
Tb1 Tb 0.666667 0.333333 0.75
Co1 Co 0 0 0.5
N1 N 0.3823(8) 0.1912(4) 0.6349(4)
C1 C 0.2371(10) 0.1185(5) 0.5832(5)
N1 N -0.1912(4) 0.1911(9) 0.6349(4)
C1 C -0.1185(5) 0.1186(11) 0.5832(5)
N1 N -0.1911(9) -0.3823(8) 0.6349(4)
C1 C -0.1186(11) -0.2371(10) 0.5832(5)
N1 N 0.1912(4) 0.3823(8) 0.3651(4)
C1 C 0.1185(5) 0.2371(10) 0.4168(5)
N1 N 0.1911(9) -0.1912(4) 0.3651(4)
C1 C 0.1186(11) -0.1185(5) 0.4168(5)
N1 N -0.3823(8) -0.1911(9) 0.3651(4)
C1 C -0.2371(10) -0.1186(11) 0.4168(5)
Tb1 Tb -0.333333 -0.666667 0.75
Tb1 Tb -0.333333 0.333333 0.75
Tb1 Tb -0.666667 -0.333333 0.25
Tb1 Tb 0.333333 -0.333333 0.25
Tb1 Tb 0.333333 0.666667 0.25
N1 N 0.8088(4) 0.1911(9) 0.6349(4)
N1 N 0.8089(9) 0.6177(8) 0.6349(4)
N1 N 0.8088(4) 0.6177(8) 0.8651(4)
N1 N 0.8089(9) 0.1912(4) 0.8651(4)
N1 N 0.3823(8) 0.1911(9) 0.8651(4)

#END
